Circuit: * C:\Users\Joey Delport\Downloads\Spice_voltage_source\Spice_voltage_source\Example1.asc

.OP point found by inspection.

Date: Tue Sep 05 10:10:04 2017
Total elapsed time: 0.194 seconds.

tnom = 27
temp = 27
method = modified trap
totiter = 10098
traniter = 10098
tranpoints = 5050
accept = 5050
rejected = 0
matrix size = 9
fillins = 0
solver = Normal
Matrix Compiler1: 350 bytes object code size  0.1/0.1/[0.0]
Matrix Compiler2: 613 bytes object code size  0.0/0.1/[0.0]

